Version 4.1
SHEET 1 4972 680
WIRE 144 -352 128 -352
WIRE 240 -352 224 -352
WIRE 240 -256 240 -352
WIRE 128 -144 128 -352
WIRE 128 -144 112 -144
WIRE 240 -144 240 -176
WIRE 240 -144 192 -144
WIRE 240 -112 240 -144
WIRE 128 -32 128 -144
WIRE 240 -32 240 -48
WIRE 240 -32 208 -32
WIRE 144 304 112 304
WIRE 144 320 144 304
WIRE 240 336 240 -32
WIRE 384 336 240 336
WIRE 544 336 448 336
WIRE 544 368 544 336
WIRE -16 416 -112 416
WIRE 144 416 144 400
WIRE 144 416 48 416
WIRE 192 416 144 416
WIRE 544 544 544 448
FLAG 544 544 0
FLAG 112 -144 0
FLAG 32 304 0
FLAG 240 432 0
FLAG -192 416 0
SYMBOL nmos 192 336 R0
SYMATTR InstName M1
SYMATTR Value AFT09MS007N
SYMBOL voltage 240 -352 R90
WINDOW 0 24 96 Left 2
WINDOW 3 24 16 Left 2
WINDOW 123 0 0 Left 0
WINDOW 39 0 0 Left 0
SYMATTR InstName V2
SYMATTR Value 60
SYMBOL cap -16 400 M90
WINDOW 0 0 32 VBottom 2
WINDOW 3 32 32 VTop 2
SYMATTR InstName C1
SYMATTR Value 100µF
SYMBOL cap 384 352 R270
WINDOW 0 32 32 VTop 2
WINDOW 3 0 32 VBottom 2
SYMATTR InstName C2
SYMATTR Value 100µF
SYMBOL res 528 352 R0
SYMATTR InstName R1
SYMATTR Value 50R
SYMBOL voltage 128 304 R90
WINDOW 0 -32 56 VBottom 2
WINDOW 3 32 56 VTop 2
WINDOW 123 0 0 Left 0
WINDOW 39 0 0 Left 0
SYMATTR InstName V1
SYMATTR Value 2.4
SYMBOL res 128 304 R0
SYMATTR InstName R2
SYMATTR Value 50
SYMBOL voltage -96 416 R90
WINDOW 0 -32 56 VBottom 2
WINDOW 3 32 56 VTop 2
WINDOW 123 88 56 VTop 2
WINDOW 39 60 56 VTop 2
SYMATTR InstName V3
SYMATTR Value SINE(0 .5 140meg)
SYMATTR Value2 AC 1
SYMATTR SpiceLine Rser=0
SYMBOL ind 224 -272 R0
SYMATTR InstName L1
SYMATTR Value 227.36nH
SYMBOL ind 224 -48 R90
WINDOW 0 5 56 VBottom 2
WINDOW 3 32 56 VTop 2
SYMATTR InstName L2
SYMATTR Value 12.98nH
SYMBOL cap 224 -112 R0
SYMATTR InstName C3
SYMATTR Value 90.95pF
SYMBOL cap 192 -160 R90
WINDOW 0 0 32 VBottom 2
WINDOW 3 32 32 VTop 2
SYMATTR InstName C4
SYMATTR Value 5.19pF
TEXT -192 568 Left 2 ;.tran 0 .0000001 0 .0000000001
TEXT 680 -8 Left 2 !.model AFT09MS007N VDMOS(Rg=0.1 Rd=0.0545 Rs=0.0545 Vto=2.1 Kp=16 Lambda=0 Cgdmax=5p Cgdmin=2.7p Cgs=104.3p Cjo=53.3p M=0.5 Vj=0.7)
TEXT -192 616 Left 2 !.ac oct 10 100meg 1000meg
TEXT 248 648 Left 2 ;.tran 0 1 0 startup
